REMARK  Name = 22549479
REMARK  3 active torsions:
REMARK  status: ('A' for Active; 'I' for Inactive)
REMARK    1  A    between atoms: N_5  and  C_8
REMARK    2  A    between atoms: C_11  and  C_18
REMARK    3  A    between atoms: C_14  and  C_19
REMARK                            x       y       z     vdW  Elec       q    Type
REMARK                         _______ _______ _______ _____ _____    ______ ____
ROOT
ATOM      1  O   UNL     1      -1.661   5.786  -1.242  0.00  0.00    +0.000 OA
ATOM      2  N   UNL     1      -3.619   4.950  -0.295  0.00  0.00    +0.000 N 
ATOM      3  C   UNL     1      -4.541   3.765  -0.211  0.00  0.00    +0.000 C 
ATOM      4  C   UNL     1      -3.696   2.473  -0.077  0.00  0.00    +0.000 C 
ATOM      5  C   UNL     1      -2.446   4.855  -1.061  0.00  0.00    +0.000 C 
ATOM      6  C   UNL     1      -2.764   2.373  -1.274  0.00  0.00    +0.000 A 
ATOM      7  C   UNL     1      -2.113   3.546  -1.683  0.00  0.00    +0.000 A 
ATOM      8  C   UNL     1      -2.454   1.170  -1.928  0.00  0.00    +0.000 A 
ATOM      9  C   UNL     1      -1.110   3.498  -2.662  0.00  0.00    +0.000 A 
ATOM     10  C   UNL     1      -1.467   1.132  -2.917  0.00  0.00    +0.000 A 
ATOM     11  C   UNL     1      -0.777   2.289  -3.265  0.00  0.00    +0.000 A 
ENDROOT
BRANCH   4  16
ATOM     12 CL   UNL     1      -6.438  -4.587   3.091  0.00  0.00    +0.000 Cl
ATOM     13  O   UNL     1      -5.496   0.971  -0.602  0.00  0.00    +0.000 OA
ATOM     14  N   UNL     1      -4.074   0.436   1.177  0.00  0.00    +0.000 N 
ATOM     15  N   UNL     1      -5.558  -1.406   0.859  0.00  0.00    +0.000 NA
ATOM     16  C   UNL     1      -4.551   1.223   0.134  0.00  0.00    +0.000 C 
ATOM     17  C   UNL     1      -4.599  -0.802   1.580  0.00  0.00    +0.000 A 
ATOM     18  C   UNL     1      -4.101  -1.369   2.756  0.00  0.00    +0.000 A 
ATOM     19  C   UNL     1      -4.659  -2.558   3.235  0.00  0.00    +0.000 A 
ATOM     20  C   UNL     1      -6.079  -2.564   1.333  0.00  0.00    +0.000 A 
ATOM     21  C   UNL     1      -5.680  -3.161   2.516  0.00  0.00    +0.000 A 
ATOM     22  H   UNL     1      -3.328   0.799   1.752  0.00  0.00    +0.000 HD
ENDBRANCH   4  16
BRANCH   3  24
ATOM     23  S   UNL     1      -7.210   3.947   0.619  0.00  0.00    +0.000 S 
ATOM     24  C   UNL     1      -5.521   3.891   0.945  0.00  0.00    +0.000 A 
ATOM     25  C   UNL     1      -5.278   3.975   2.307  0.00  0.00    +0.000 A 
ATOM     26  C   UNL     1      -6.475   4.117   3.069  0.00  0.00    +0.000 A 
ATOM     27  C   UNL     1      -7.597   4.112   2.274  0.00  0.00    +0.000 A 
ENDBRANCH   3  24
BRANCH   2  28
ATOM     28  C   UNL     1      -3.983   6.264   0.272  0.00  0.00    +0.000 C 
ATOM     29  C   UNL     1      -4.087   7.438  -0.711  0.00  0.00    +0.000 C 
ATOM     30  C   UNL     1      -2.979   6.756   1.318  0.00  0.00    +0.000 C 
ATOM     31  C   UNL     1      -3.856   8.691   0.139  0.00  0.00    +0.000 C 
ATOM     32  C   UNL     1      -3.333   8.222   1.496  0.00  0.00    +0.000 C 
ENDBRANCH   2  28
TORSDOF 3
