REMARK  Name = 
REMARK  3 active torsions:
REMARK  status: ('A' for Active; 'I' for Inactive)
REMARK    1  A    between atoms: C_7  and  C_22
REMARK    2  A    between atoms: C_8  and  C_17
REMARK    3  A    between atoms: N_9  and  C_12
REMARK                            x       y       z     vdW  Elec       q    Type
REMARK                         _______ _______ _______ _____ _____    ______ ____
ROOT
ATOM      1  C   UNL     1       2.912  -0.136   0.172  0.00  0.00    +0.000 A 
ATOM      2  C   UNL     1       2.487   1.174   0.003  0.00  0.00    +0.000 A 
ATOM      3  C   UNL     1       1.129   1.461   0.045  0.00  0.00    +0.000 A 
ATOM      4  C   UNL     1       0.190   0.425   0.182  0.00  0.00    +0.000 A 
ATOM      5  C   UNL     1       0.599  -0.920   0.259  0.00  0.00    +0.000 A 
ATOM      6  C   UNL     1       1.979  -1.163   0.337  0.00  0.00    +0.000 A 
ATOM      7  C   UNL     1      -0.465  -2.030   0.247  0.00  0.00    +0.000 C 
ATOM      8  C   UNL     1      -1.733  -1.527  -0.501  0.00  0.00    +0.000 C 
ATOM      9  N   UNL     1      -2.175  -0.208  -0.014  0.00  0.00    +0.000 N 
ATOM     10  C   UNL     1      -1.246   0.800   0.224  0.00  0.00    +0.000 C 
ATOM     11  O   UNL     1      -1.538   1.959   0.500  0.00  0.00    +0.000 OA
ENDROOT
BRANCH   7  12
ATOM     12  C   UNL     1       0.010  -3.407  -0.294  0.00  0.00    +0.000 C 
ATOM     13  O   UNL     1       1.183  -3.626  -0.604  0.00  0.00    +0.000 OA
ATOM     14  N   UNL     1      -0.938  -4.419  -0.366  0.00  0.00    +0.000 N 
ATOM     15  C   UNL     1      -0.553  -5.687  -0.835  0.00  0.00    +0.000 A 
ATOM     16  C   UNL     1       0.553  -6.352  -0.297  0.00  0.00    +0.000 A 
ATOM     17  C   UNL     1       0.973  -7.546  -0.885  0.00  0.00    +0.000 A 
ATOM     18  C   UNL     1       0.287  -8.023  -1.994  0.00  0.00    +0.000 A 
ATOM     19  C   UNL     1      -0.822  -7.318  -2.432  0.00  0.00    +0.000 A 
ATOM     20  N   UNL     1      -1.287  -6.181  -1.847  0.00  0.00    +0.000 NA
ATOM     21 CL   UNL     1       0.815  -9.442  -2.800  0.00  0.00    +0.000 Cl
ATOM     22  H   UNL     1      -1.849  -4.170  -0.730  0.00  0.00    +0.000 HD
ENDBRANCH   7  12
BRANCH   9  23
ATOM     23  C   UNL     1      -3.609   0.042   0.202  0.00  0.00    +0.000 C 
ATOM     24  C   UNL     1      -4.220   1.164  -0.643  0.00  0.00    +0.000 C 
ATOM     25  C   UNL     1      -5.425   1.670   0.152  0.00  0.00    +0.000 C 
ATOM     26  C   UNL     1      -5.315   1.087   1.559  0.00  0.00    +0.000 C 
ATOM     27  C   UNL     1      -3.941   0.442   1.645  0.00  0.00    +0.000 C 
ENDBRANCH   9  23
BRANCH   8  28
ATOM     28  C   UNL     1      -1.553  -1.495  -2.016  0.00  0.00    +0.000 A 
ATOM     29  C   UNL     1      -0.663  -0.775  -2.797  0.00  0.00    +0.000 A 
ATOM     30  C   UNL     1      -0.700  -1.141  -4.171  0.00  0.00    +0.000 A 
ATOM     31  C   UNL     1      -1.652  -2.100  -4.419  0.00  0.00    +0.000 A 
ATOM     32  S   UNL     1      -2.507  -2.535  -3.005  0.00  0.00    +0.000 S 
ENDBRANCH   8  28
TORSDOF 3
